8500-Node/IEEE8500_Losses.Txt

LOSSES REPORT

Power Delivery Element Loss Report

Element                  kW Losses    % of Power   kvar Losses

"Line.HVMV_SUB_CONNECTOR"     0.00083,      0.0     0.00829032
"Line.LN5502549-1"            0.00021,      0.0     -0.00397003
"Line.LN6259988-1"            0.00037,      0.0     -0.013861
"Line.LN6077796-1"            0.00005,      0.0     -0.00140375
"Line.LN5835135-2"            0.02196,     0.02     0.00641147
"Line.LN5896826-1"            0.00016,      0.0     -0.0269673
"Line.LN5714038-1"            0.00081,      0.0     -0.0126709
"Line.LN5653457-1"            0.32675,     0.06     0.0757302
"Line.LN5835173-1"            0.15947,     0.02     0.134321
"Line.LN6321415-1"            0.00021,      0.0     -0.011674
"Line.LN5565092-1"            0.00003,      0.0     -0.000469045
"Line.LN6073648-1"            0.00012,      0.0     -0.000923735
"Line.LN5774457-1"            0.10134,     0.02     0.0164372
"Line.LN5534966-3"            0.00504,     0.01     -0.000308791
"Line.LN5859996-1"            0.00005,      0.0     -0.000769621
"Line.LN6138610-2"            1.39984,     0.06     0.439812
"Line.LN6258435-3"            0.00066,      0.0     -0.0117784
"Line.LN5804790-1"            0.00071,      0.0     -0.0241004
"Line.LN6900591-14"           0.00148,     0.00     -0.00716043
"Line.LN6409873-1"            0.01347,     0.02     -0.0019718
"Line.LN6014135-1"            0.00062,      0.0     -0.00017923
"Line.LN6077784-1"            0.31614,     0.03     0.265611
"Line.LN5744338-1"            0.06709,     0.04     0.0310027
"Line.LN6991381-4"            0.00230,     0.01     -0.0085974
"Line.LN5774480-1"            0.26155,     0.12     0.126752
"Line.LN5986938-3"            0.00043,      0.0     -0.000839138
"Line.LN5894230-1"            0.00044,      0.0     -0.0161826
"Line.LN5683858-3"            0.00088,      0.0     -0.00982836
"Line.LN5920279-5"            0.99537,     0.02     2.36452
"Line.LN6439600-1"            0.00020,      0.0     -0.0133863
"Line.LN5589097-1"            0.00011,      0.0     -0.0031586
"Line.LN5651975-1"            0.28805,     0.04     0.0925203
"Line.LN5865236-1"            0.00010,      0.0     -0.0011357
"Line.LN5593232-1"            0.00033,      0.0     -0.0187034
"Line.LN5740283-1"            0.00003,      0.0     -0.000887277
"Line.LN6106559-1"            0.00265,     0.01     -0.01111
"Line.LN5714056-3"            0.70478,     0.11     0.208986
"Line.LN5985355-3"            0.36792,     0.09     0.192754
"Line.LN5531956-1"            0.00012,      0.0     -0.00872163
"Line.LN5650048-1"            0.00014,      0.0     -0.00771132
"Line.LN6290203-1"            0.24218,     0.03     0.19128
"Line.LN6134414-1"            0.00055,      0.0     -0.00790901
"Line.LN6259998-2"            0.00005,      0.0     -0.00177372
"Line.LN6078767-1"            0.24484,     0.01     0.548251
"Line.LN6017300-1"            0.00011,      0.0     -0.0114029
"Line.LN8979257-2"            0.00004,      0.0     -0.0380209
"Line.LN81048109-1"           0.00200,     0.01     -0.0509681
"Line.293471"                 0.00027,      0.0     -0.017686
"Line.LN5534965-2"            0.00002,      0.0     -0.000804863
"Line.LN5655683-1"            0.00418,     0.00     0.00159243
"Line.LN5686247-1"            0.00005,      0.0     -0.000807163
"Line.LN6048642-1"            0.00000,      0.0     -0.0135704
"Line.LN5928544-3"            0.01942,     0.02     0.00340776
"Line.LN6108172-1"            0.00157,     0.01     -0.025229
"Line.LN5532754-1"            0.11963,     0.02     0.0366955
"Line.LN5591834-1"            0.00109,     0.00     -0.00865884
"Line.LN6347196-2"            0.06465,     0.01     0.00743713
"Line.LN5532741-1"            0.00801,     0.01     -0.00325967
"Line.LN5804803-1"            0.00020,      0.0     -0.0373928
"Line.LN6169248-1"            0.96226,     0.06     0.905734
"Line.LN5532786-2"            0.00009,      0.0     -0.00206702
"Line.LN5744339-1"            0.03758,     0.03     0.0101465
"Line.LN5531255-3"            0.02628,     0.02     0.00787308
"Line.LN5926308-2"            0.23346,     0.03     0.0642999
"Line.LN5683856-3"            0.00007,      0.0     -0.00329059
"Line.LN6171502-1"            0.00005,      0.0     -0.000876207
"Line.LN5593228-1"            0.00013,      0.0     -0.0077906
"Line.LN6380800-1"            0.00013,      0.0     -0.00743152
"Line.LN6199525-2"            0.00003,      0.0     -0.00881159
"Line.LN5772710-2"            0.01558,     0.02     -0.00270122
"Line.LN8961760-1"            0.00013,      0.0     -0.0028538
"Line.LN6047556-1"            0.00026,      0.0     -0.0153479
"Line.LN6138603-1"            0.00107,     0.01     -0.0158374
"Line.LN6108139-1"            0.00002,      0.0     -0.00227686
"Line.LN6388581-2"            0.00006,      0.0     -0.00679414
"Line.LN5774460-1"            0.00004,      0.0     -0.00746113
"Line.LN5624387-1"            0.00044,      0.0     -0.00681321
"Line.LN6137087-1"            0.00697,     0.01     -0.000777804
"Line.LN6077809-1"            0.02631,     0.03     0.00640945
"Line.LN6440079-1"            0.00079,      0.0     -0.00626662
"Line.LN5804794-1"            0.01650,     0.02     -0.000702345
"Line.LN5654484-1"            0.00010,      0.0     -0.00358712
"Line.LN5774465-1"            0.00092,     0.01     -0.014692
"Line.LN5473349-1"            0.89366,     0.01     2.11946
"Line.LN6169253-1"            0.00016,      0.0     -0.006979
"Line.LN6350536-1"            0.00011,      0.0     -0.0210402
"Line.LN6048523-1"            0.07529,     0.05     0.0276573
"Line.LN5594152-1"            0.07299,     0.04     0.0418763
"Line.LN5865248-1"            0.34219,     0.04     0.0945685
"Line.LN6046143-1"            0.00005,      0.0     -0.0111471
"Line.LN5803287-1"            0.00020,      0.0     -0.0026897
"Line.LN5589094-1"            0.12168,     0.05     0.0582601
"Line.LN5954983-1"            0.04219,     0.04     0.0119882
"Line.LN5924696-2"            0.00003,      0.0     -0.00565633
"Line.LN6506311-4"            0.00000,      0.0     -0.00110079
"Line.LN5653493-1"            0.01313,     0.01     0.00548238
"Line.LN5684836-1"            2.83523,     0.05     6.72873
"Line.LN5715016-3"            0.00005,      0.0     -0.00943041
"Line.LN6138614-1"            0.89403,     0.10     0.25856
"Line.LN6077781-2"            9.73474,     0.19     9.11769
"Line.LN5675121-1"            0.00003,      0.0     -0.0125789
"Line.LN5773046-1"            0.16499,     0.07     0.0818259
"Line.LN6380809-2"            0.09429,     0.01     0.036036
"Line.LN6018326-1"            0.00029,      0.0     -0.00780376
"Line.LN5472356-1"            0.00003,      0.0     -0.00787528
"Line.LN6139641-1"            2.27901,     0.03     5.41347
"Line.LN6018341-1"            0.71359,     0.03     1.59004
"Line.LN6017302-1"            0.13505,     0.05     0.0412097
"Line.LN6199505-1"            0.00002,      0.0     -0.00451362
"Line.LN5682327-1"            0.00367,     0.00     0.0012923
"Line.LN6290243-1"            0.00061,      0.0     -0.0078501
"Line.X8223_48332_SW"         0.01532,     0.00     0.0151112
"Line.LN6413567-3"            0.35866,     0.03     0.123533
"Line.LN5591731-3"            0.07519,     0.00     0.178585
"Line.LN5653470-1"            0.00028,      0.0     -0.0305072
"Line.LN6017316-1"            0.21652,     0.09     0.107067
"Line.LN5926299-1"            0.00055,      0.0     -0.00719433
"Line.LN5683831-1"            0.53279,     0.06     0.149993
"Line.LN6352700-1"            0.00008,      0.0     -0.000257022
"Line.LN6047570-1"            0.00004,      0.0     -0.00605977
"Line.LN5624342-1"            2.30967,     0.04     5.48425
"Line.LN6259992-1"            0.00013,      0.0     -0.00575979
"Line.LN5841919-1"            0.00008,      0.0     -0.0112508
"Line.LN6380811-1"            0.06504,     0.06     0.0186559
"Line.LN5683832-1"            0.00013,      0.0     -0.00956351
"Line.LN6077778-1"            0.00014,      0.0     -0.0109077
"Line.LN5561442-2"            3.19155,     0.04     7.58778
"Line.LN6259983-1"            0.00038,      0.0     -0.0201431
"Line.LN5865244-1"            0.02089,     0.02     0.00566218
"Line.LN6350555-1"            0.00005,      0.0     -0.00778204
"Line.LN5714039-1"            0.00259,     0.01     -0.00480024
"Line.LN5889821-1"            3.73864,     0.06     8.88129
"Line.LN5804791-1"            1.51115,     0.12     0.51546
"Line.LN5653486-1"            0.00262,     0.01     -0.00944874
"Line.LN5926286-1"            0.00211,     0.01     -0.00732675
"Line.LN6318859-1"            0.00000,      0.0     -0.00711224
"Line.LN5926316-1"            0.00205,     0.00     -0.000100804
"Line.LN5591703-1"            0.00067,      0.0     -0.00735074
"Line.LN5531333-1"            0.00177,     0.00     -0.00299114
"Line.LN6047581-1"            0.00004,      0.0     -0.00356863
"Line.LN6349077-1"            0.00000,      0.0     -0.00500912
"Line.LN6350574-1"            0.02291,     0.01     -0.0343392
"Line.LN6320343-1"            0.03701,     0.03     0.0111244
"Line.LN81048100-5"           0.03928,     0.02     -0.00497658
"Line.LN6348946-1"            0.00002,      0.0     -0.0010647
"Line.LN5744351-1"            0.00016,      0.0     -0.00962542
"Line.LN5472342-1"            0.00004,      0.0     -0.00732104
"Line.LN5621849-1"            0.00007,      0.0     -0.000612957
"Line.LN6379375-1"            0.00004,      0.0     -0.00679093
"Line.LN6028890-1"            0.00062,      0.0     -0.0208071
"Line.LN6380822-1"            0.90321,     0.07     0.787114
"Line.LN5835131-1"            0.24980,     0.03     0.192753
"Line.LN5803262-7"            0.00001,      0.0     -0.0018541
"Line.LN81048089-1"           0.03379,     0.03     -0.0499612
"Line.LN6201699-1"            0.00003,      0.0     -0.000924132
"Line.LN5746548-1"            0.05621,     0.01     0.0165201
"Line.LN5835174-1"            0.42112,     0.17     0.209064
"Line.LN6505947-4"            0.00134,     0.00     0.000425787
"Line.LN5683833-1"            0.31643,     0.15     0.14951
"Line.LN5561439-3"            0.12307,     0.02     0.212515
"Line.LN6109190-1"            0.00115,     0.00     -0.00357448
"Line.LN6258435-2"            0.00014,      0.0     -0.00241227
"Line.LN5804819-1"            0.00022,      0.0     -0.0232025
"Line.LN5593215-1"            0.08634,     0.04     0.0403978
"Line.LN5833717-1"            0.24350,     0.02     0.21158
"Line.LN6199557-1"            0.45794,     0.05     0.39273
"Line.LN5744332-1"            0.00008,      0.0     -0.00789919
"Line.LN5558790-1"            0.83967,     0.01     1.99319
"Line.LN6078692-1"            0.08781,     0.04     0.0414578
"Line.LN5956482-1"            0.01646,     0.00     0.00851224
"Line.LN5593225-1"            0.00017,      0.0     -0.00943292
"Line.LN6900591-26"           0.00046,      0.0     -0.000145424
"Line.LN5952393-1"            0.00235,     0.01     -0.00352217
"Line.LN6350531-1"            0.02279,     0.06     -0.0378142
"Line.LN5965099-10"           0.02375,     0.01     0.0127053
"Line.LN6047568-1"            0.44824,     0.19     0.21876
"Line.LN5926292-1"            0.00013,      0.0     -0.00816637
"Line.LN6380806-1"            0.00116,     0.00     -0.00736458
"Line.LN6341781-3"            0.00017,      0.0     -0.0113678
"Line.LN8979367-1"            0.00043,      0.0     -0.0640293
"Line.LN6018340-1"            0.00124,     0.01     -0.0134893
"Line.LN6380847-1"            0.47367,     0.08     0.118859
"Line.LN8961797-1"            0.00143,     0.01     -0.097124
"Line.LN6077797-1"            0.00747,     0.02     -0.0130641
"Line.LN6077773-1"            0.00535,     0.01     -0.00795186
"Line.LN5837496-4"            0.00008,      0.0     -0.00425181
"Line.LN5623392-1"            0.00413,     0.01     -0.0144048
"Line.LN5624380-1"            0.00126,     0.01     -0.0151469
"Line.LN6422809-2"            0.12432,     0.00     0.116689
"Line.LN5799561-1"            1.06997,     0.03     2.40924
"Line.LN6229818-1"            0.00006,      0.0     -0.010252
"Line.LN5593230-1"            0.18112,     0.07     0.0924425
"Line.LN5563901-3"            2.00708,     0.03     4.76856
"Line.LN6320339-1"            0.00715,     0.02     -0.0190169
"Line.LN5986927-1"            0.00004,      0.0     -0.00195734
"Line.LN6047567-1"            0.00018,      0.0     -0.00642052
"Line.LN5714047-1"            0.04090,     0.03     0.0134368
"Line.LN5563934-1"            0.00892,     0.02     -0.00800126
"Line.LN6169249-3"            0.00002,      0.0     -0.000569136
"Line.LN6230800-1"            0.00012,      0.0     -0.00467193
"Line.LN5985339-2"            0.00054,      0.0     -0.00983552
"Line.LN5898059-3"            0.00013,      0.0     -0.00296281
"Line.LN5956457-2"            0.07806,     0.01     0.0592501
"Line.LN5865229-1"            0.01952,     0.02     0.00391687
"Line.LN6018331-1"            0.61845,     0.02     1.3908
"Line.LN6199535-1"            0.00025,      0.0     -0.00923646
"Line.LN5502538-1"            0.72813,     0.10     0.228788
"Line.LN5742816-2"            0.01458,     0.02     -0.00228525
"Line.LN6229803-3"            0.00005,      0.0     -0.00300065
"Line.LN5986930-1"            0.05681,     0.06     0.00757193
"Line.LN6350532-1"            0.00011,      0.0     -0.00505501
"Line.LN5588016-3"            0.00711,     0.01     0.0024507
"Line.LN5623409-1"            0.00103,     0.01     -0.00910027
"Line.LN6350560-1"            0.01864,     0.02     0.00414536
"Line.LN5472347-1"            0.00141,     0.00     -0.00615266
"Line.LN6290199-1"            6.22982,     0.11     14.7766
"Line.LN6409775-3"            0.00226,     0.00     -0.00106032
"Line.LN5591811-1"            0.02886,     0.04     -0.0040622
"Line.LN6229808-1"            0.00013,      0.0     -0.00880052
"Line.LN5651985-3"            0.00036,      0.0     -0.00524714
"Line.LN6047577-1"            3.52151,     0.16     1.10649
"Line.LN5528574-2"            0.00002,      0.0     -0.000599054
"Line.LN5896827-1"            0.00015,      0.0     -0.00845983
"Line.LN5774451-1"            0.01625,     0.02     0.000701953
"Line.LN5504876-1"            0.00981,     0.01     -0.0352087
"Line.LN5860423-4"            1.30216,     0.03     1.21862
"Line.LN6138613-1"            0.00007,      0.0     -0.00502548
"Line.LN6077771-1"            0.03283,     0.02     0.0123913
"Line.LN6138636-1"            0.00052,      0.0     -0.0152612
"Line.LN6199512-1"            0.00128,     0.01     -0.0166128
"Line.LN6047564-1"            0.00058,      0.0     -0.00828134
"Line.LN6258460-3"            0.00052,      0.0     -0.0291078
"Line.LN5683810-1"            0.12529,     0.02     0.0974654
"Line.LN5852082-1"            0.00084,      0.0     -0.000450228
"Line.LN6380816-1"            0.00006,      0.0     -0.0086398
"Line.LN6108138-2"            0.00026,      0.0     -0.00124531
"Line.LN6167732-2"            0.00004,      0.0     -0.00186822
"Line.LN6229831-1"            0.07634,     0.03     0.0381143
"Line.LN6504020-2"           29.95131,     0.27     70.6891
"Line.LN81354561-2"           0.00002,      0.0     -0.00204743
"Line.LN5654476-1"            0.00056,      0.0     -0.010867
"Line.LN6987572-4"            0.02067,     0.01     0.0116935
"Line.LN6260025-1"            0.00016,      0.0     -0.00865682
"Line.LN5926291-1"            0.22678,     0.03     0.176443
"Line.LN8961800-1"            0.01063,     0.02     -0.0907123
"Line.LN6437757-1"            0.00007,      0.0     -0.00235174
"Line.LN5594245-1"            0.00003,      0.0     -0.00869092
"Line.LN5957492-1"            0.00001,      0.0     -0.000296442
"Line.LN5956464-1"            0.03040,     0.00     0.011621
"Line.LN6171683-1"            0.00009,      0.0     -0.00127086
"Line.LN5625715-1"            0.00002,      0.0     -0.000301684
"Line.LN5746706-2"            0.00135,     0.00     -0.0032687
"Line.LN5653491-1"            0.00030,      0.0     -0.00799506
"Line.LN5472361-1"            0.00004,      0.0     -0.0114393
"Line.LN5683856-2"            0.00002,      0.0     -0.00104737
"Line.LN5565091-1"            0.00003,      0.0     -0.00127742
"Line.LN5653466-1"            0.00079,      0.0     -0.0153017
"Line.LN5534966-2"            0.00275,     0.00     -0.000168607
"Line.LN6409762-1"            0.00008,      0.0     -0.00795206
"Line.LN6109158-1"            3.94161,     0.18     1.2314
"Line.LN5835145-1"            0.00086,      0.0     -0.019687
"Line.LN5774493-1"            0.00406,     0.01     -0.00955228
"Line.LN5835143-1"            5.01514,     0.28     1.52286
"Line.LN5926315-1"            0.00001,      0.0     -0.00135894
"Line.LN5895786-1"            0.00004,      0.0     -0.00758302
"Line.LN81048102-5"           0.00175,     0.00     -0.0016139
"Line.LN5861084-1"            0.00036,      0.0     -0.000921686
"Line.LN5774455-2"            0.00011,      0.0     -0.00204526
"Line.LN6108132-1"            0.00004,      0.0     -0.0101327
"Line.LN6077775-1"            0.00116,     0.01     -0.0170818
"Line.LN5591718-1"            0.00012,      0.0     -0.0127359
"Line.LN5653461-1"            0.00012,      0.0     -0.00870746
"Line.LN6290229-1"            0.00096,     0.00     -0.00270042
"Line.LN5774463-1"            0.00004,      0.0     -0.0100552
"Line.LN6380814-1"            0.00007,      0.0     -0.00740255
"Line.LN5895776-1"            0.00063,      0.0     -0.00726993
"Line.LN6200439-1"            0.00221,     0.00     -0.00304908
"Line.LN6138601-1"            0.00009,      0.0     -0.00165109
"Line.LN5927421-1"            0.00011,      0.0     -0.00644333
"Line.LN5532748-5"            0.46313,     0.03     0.423243
"Line.LN6506318-4"            0.00002,      0.0     -0.000420814
"Line.LN6288856-3"            0.09126,     0.05     0.0423266
"Line.LN5653452-1"            3.76011,     0.06     8.91848
"Line.LN6290205-1"            0.33496,     0.03     0.303249
"Line.LN6350547-1"            0.00015,      0.0     -0.00854705
"Line.LN6229800-1"            0.03103,     0.02     0.0108871
"Line.LN6138609-1"            0.12928,     0.05     0.0623942
"Line.LN81048090-1"           0.00000,      0.0     -0.0647346
"Line.LN5683828-1"            0.18600,     0.08     0.091347
"Line.LN8979256-1"            0.00017,      0.0     -0.146488
"Line.LN6506317-2"            0.00018,      0.0     -0.028293
"Line.LN6078744-1"            0.00028,      0.0     -0.00452308
"Line.LN81018875-1"           0.00003,      0.0     -0.00382441
"Line.LN6078691-1"            0.15363,     0.09     0.0612603
"Line.LN6258439-1"            0.39145,     0.07     0.176322
"Line.LN6108164-1"            0.22431,     0.06     0.117136
"Line.LN5927379-2"            0.00025,      0.0     -0.00931774
"Line.LN6110365-1"            0.00071,      0.0     -0.0123248
"Line.LN5773040-1"            0.34144,     0.06     0.145139
"Line.V7173_48332_SW"         0.21393,     0.00     0.213722
"Line.LN5534969-2"            0.78095,     0.01     1.855
"Line.LN6015891-1"            0.00000,      0.0     -0.0143436
"Line.LN5683816-1"            0.66538,     0.10     0.26725
"Line.LN6199561-1"            0.00046,      0.0     -0.00736279
"Line.LN6900591-12"           0.00288,     0.01     -0.00579322
"Line.LN6411363-1"            0.00043,      0.0     -0.0131204
"Line.LN6108130-6"            0.00025,      0.0     -0.0241017
"Line.LN5837516-1"            0.00010,      0.0     -0.00267699
"Line.LN6017301-4"            0.00007,      0.0     -0.00283888
"Line.LN5981121-1"            0.00007,      0.0     -0.0145485
"Line.LN81048107-4"           0.00086,      0.0     -0.0219733
"Line.LN5472374-1"            0.04939,     0.03     0.0203195
"Line.LN5746550-2"            0.00001,      0.0     -0.00123936
"Line.LN5561437-1"            0.07002,     0.03     -0.0387922
"Line.LN6439986-3"            0.00010,      0.0     -0.0038275
"Line.LN5744324-1"            0.01354,     0.03     -0.0147321
"Line.LN6376708-1"            0.00021,      0.0     -0.00107634
"Line.LN5895816-2"            0.00091,     0.00     -0.00856068
"Line.LN5593235-1"            0.00027,      0.0     -0.00986742
"Line.LN81354563-2"           0.00128,     0.00     -0.00469371
"Line.LN5866260-1"            0.00011,      0.0     -0.00582031
"Line.LN6018243-1"            0.00883,     0.02     -0.00652887
"Line.LN5928743-3"            0.00082,      0.0     -0.0149748
"Line.LN5957501-1"            0.00005,      0.0     -0.00506192
"Line.LN6379357-1"            0.00203,     0.00     -0.00232713
"Line.LN6291252-2"            0.31673,     0.01     0.705781
"Line.LN6440002-3"            0.00751,     0.01     0.00241379
"Line.LN6076346-1"            0.87947,     0.16     0.392092
"Line.LN8978752-1"            0.00178,     0.00     -0.0171092
"Line.LN5621834-1"            0.00605,     0.02     -0.0129216
"Line.LN6108123-1"            0.00008,      0.0     -0.00812008
"Line.LN6505952-4"            0.00001,      0.0     -0.000348222
"Line.LN5835159-1"            0.00004,      0.0     -0.00647513
"Line.LN5698090-2"            0.00011,      0.0     -0.000528928
"Line.LN5714050-1"            0.00036,      0.0     -0.00905526
"Line.LN5502529-1"            0.00001,      0.0     -0.000390793
"Line.LN5594236-1"            0.60259,     0.02     1.35682
"Line.LN5593248-1"            0.00011,      0.0     -0.0166225
"Line.LN5865272-1"            0.30123,     0.06     0.0812718
"Line.LN5924696-3"            0.00003,      0.0     -0.0065804
"Line.LN5589096-1"            0.00002,      0.0     -0.00126553
"Line.LN6017295-1"            0.41024,     0.13     0.214519
"Line.LN5970852-1"            0.02463,     0.01     0.0161931
"Line.LN5683820-1"            0.00008,      0.0     -0.00301973
"Line.LN6286966-3"            0.00003,      0.0     -0.00286655
"Line.LN6167715-1"            0.00001,      0.0     -0.0012129
"Line.LN6108140-2"            0.00004,      0.0     -0.00169984
"Line.LN6228279-1"            0.00027,      0.0     -0.00259558
"Line.LN5803264-2"            0.00003,      0.0     -0.00122798
"Line.LN6132680-1"            0.92320,     0.15     0.390819
"Line.LN5531195-1"            0.18978,     0.01     0.418576
"Line.LN5985361-1"            0.69049,     0.12     0.1765
"Line.LN6102293-1"            0.00397,     0.01     -0.0167081
"Line.LN8989758-1"            0.00010,      0.0     -0.0207917
"Line.LN6229790-1"            0.00147,     0.01     -0.00751968
"Line.LN5956469-1"            0.00049,      0.0     -0.00678681
"Line.LN5803270-3"            0.00023,      0.0     -0.00333952
"Line.LN81048102-6"           0.00179,     0.00     -0.00164609
"Line.LN6440070-1"            0.00000,      0.0     -0.031207
"Line.LN6048626-1"            3.22512,     0.04     7.66004
"Line.LN6076248-1"            0.10898,     0.03     0.0821605
"Line.LN6137083-1"            0.00000,      0.0     -0.00570428
"Line.LN6286261-1"            0.00061,      0.0     -0.00901866
"Line.LN5653477-1"            0.00064,      0.0     -0.0104194
"Line.LN6078810-1"            0.00031,      0.0     -0.00635071
"Line.LN6199526-1"            0.00004,      0.0     -0.00771019
"Line.LN6108125-2"            1.96532,     0.03     4.6685
"Line.LN6108149-1"            0.00054,      0.0     -0.0129088
"Line.LN6230759-1"            0.00015,      0.0     -0.0175817
"Line.LN8979249-1"            0.00005,      0.0     -0.011414
"Line.LN5865237-1"            0.00009,      0.0     -0.00952993
"Line.LN5706733-2"            0.00007,      0.0     -0.000630518
"Line.LN5745348-1"            0.66487,     0.02     1.49256
"Line.LN5898059-2"            0.00038,      0.0     -0.00863068
"Line.LN5744367-1"            0.14266,     0.08     0.0620566
"Line.LN5773136-1"            0.00006,      0.0     -0.0151675
"Line.LN5472403-2"            0.00690,     0.00     -0.00290057
"Line.LN5712496-1"            0.00013,      0.0     -0.00319496
"Line.LN5772710-1"            0.02359,     0.03     -0.000485105
"Line.LN6139544-1"            0.25944,     0.12     0.173141
"Line.LN6015788-2"            0.02357,     0.03     0.00208938
"Line.LN5591702-1"            0.12060,     0.07     0.0503861
"Line.LN5986923-1"            0.03525,     0.04     0.00189342
"Line.LN6301772-2"            0.00246,     0.00     -0.0010809
"Line.LN6001653-2"            0.27211,     0.05     0.0617291
"Line.LN6017283-1"            0.00195,     0.01     -0.00850508
"Line.LN5686079-1"            0.47782,     0.04     0.402322
"Line.LN5527264-7"            0.88106,     0.02     2.09288
"Line.LN5683813-1"            0.00001,      0.0     -0.00279921
"Line.LN5986935-1"            0.61398,     0.08     0.167329
"Line.LN5956457-3"            0.11764,     0.02     0.0892944
"Line.LN5654471-1"            0.70341,     0.02     1.58057
"Line.LN6409800-1"            0.00008,      0.0     -0.00492223
"Line.LN6411365-1"            0.00037,      0.0     -0.0267819
"Line.LN6320328-1"            0.07471,     0.07     0.0201007
"Line.LN5712477-3"            0.03937,     0.04     0.0083888
"Line.LN5621857-3"            0.00006,      0.0     -0.0138093
"Line.LN6440071-1"            0.09511,     0.08     0.0297471
"Line.LN5472355-1"            0.00065,      0.0     -0.0108527
"Line.LN6351523-3"            0.04826,     0.01     0.0257375
"Line.LN6047595-2"            0.00150,     0.00     -0.0842451
"Line.LN5800724-1"            0.00004,      0.0     -0.00107695
"Line.LN6422809-3"            0.28746,     0.01     0.269822
"Line.LN5532744-1"            0.00001,      0.0     -0.00247258
"Line.LN5594242-1"            7.44708,     0.06     17.5755
"Line.LN8979343-3"            0.00034,      0.0     -0.00415359
"Line.LN5835137-1"            0.00025,      0.0     -0.0113945
"Line.LN6170199-2"            0.00002,      0.0     -0.00249018
"Line.LN5683821-1"            0.00079,      0.0     -0.0110969
"Line.LN81048110-2"           0.00062,      0.0     -0.0416363
"Line.LN6506306-2"            0.00113,     0.00     -0.0138678
"Line.LN5593219-1"            0.00176,     0.01     -0.0089963
"Line.LN81048087-1"           0.00460,     0.00     -0.000584676
"Line.LN6268990-4"            0.00237,     0.00     0.00016677
"Line.LN8968082-2"            0.00232,     0.01     -0.0662223
"Line.LN5744344-1"            0.01820,     0.02     0.00434845
"Line.LN5593220-2"            0.00030,      0.0     -0.0072624
"Line.V9287_48332_SW"         0.00046,      0.0     0.000388265
"Line.LN6019477-1"            0.00702,     0.00     0.00272183
"Line.LN5593227-1"            0.00008,      0.0     -0.00112296
"Line.LN6409869-1"            0.00000,      0.0     -0.00599924
"Line.LN6321419-2"            0.00508,     0.01     -0.013084
"Line.LN6348954-1"            0.00018,      0.0     -0.0100923
"Line.LN6201695-2"            0.00002,      0.0     -0.0011705
"Line.LN6048635-1"            0.00436,     0.01     -0.0112203
"Line.LN6199519-1"            0.15103,     0.07     0.0722833
"Line.LN6505938-4"            0.00002,      0.0     -0.000299051
"Line.LN5472375-1"            0.03850,     0.01     0.0114614
"Line.LN5835124-1"            0.00043,      0.0     -0.00649754
"Line.LN6103927-1"            0.00005,      0.0     -0.000803446
"Line.LN6138622-1"            0.00022,      0.0     -0.00383784
"Line.LN5776673-1"            0.00030,      0.0     -0.000432733
"Line.LN6074369-1"            0.00018,      0.0     -0.00241156
"Line.LN5621826-1"            0.00008,      0.0     -0.00382318
"Line.LN6506312-2"            0.01168,     0.02     -0.0046529
"Line.LN6046046-1"            0.00013,      0.0     -0.00755584
"Line.LN6138589-1"            0.00002,      0.0     -0.00476858
"Line.LN6258445-1"            0.00002,      0.0     -0.000858002
"Line.LN5653480-1"            4.39029,     0.08     4.12691
"Line.LN5717630-1"            0.02153,     0.02     0.0084137
"Line.LN5956463-1"            1.87128,     0.15     0.646381
"Line.LN5744328-1"            0.00213,     0.00     -0.00122229
"Line.LN8979254-1"            0.00007,      0.0     -0.0142903
"Line.LN5620694-1"            0.00036,      0.0     -0.00690801
"Line.LN6048634-1"            5.29399,     0.05     12.4949
"Line.LN5895779-1"            0.00005,      0.0     -0.00589839
"Line.LN5951197-2"            0.00014,      0.0     -0.0218395
"Line.LN5563942-3"            4.54655,     0.04     10.7257
"Line.LN5835123-1"            0.00111,     0.01     -0.0174915
"Line.LN5956483-1"            0.00088,      0.0     -0.00804224
"Line.LN6291153-1"            0.00036,      0.0     -0.00853801
"Line.LN5683841-1"            0.00071,      0.0     -0.0107312
"Line.LN5804802-1"            1.45859,     0.13     0.515739
"Line.LN6167753-1"            0.00004,      0.0     -0.00945979
"Line.LN6047569-1"            0.00011,      0.0     -0.0117005
"Line.LN6229809-1"            0.70499,     0.10     0.207249
"Line.LN5804781-1"            0.01732,     0.02     0.000314196
"Line.LN6352701-1"            0.00000,      0.0     -0.00140064
"Line.LN5955074-2"            0.01603,     0.02     -0.00235267
"Line.LN6229805-1"            0.00150,     0.01     -0.010865
"Line.LN6411376-1"            0.00126,     0.00     0.000170581
"Line.LN5654485-1"            0.00006,      0.0     -0.0145186
"Line.LN5746550-3"            0.00005,      0.0     -0.00820218
"Line.LN6232159-1"            0.00000,      0.0     -0.000540631
"Line.LN6412346-1"            0.00030,      0.0     -0.0177727
"Line.LN6350548-1"            0.00134,     0.01     -0.00718803
"Line.LN6106658-1"            0.02622,     0.02     0.0111203
"Line.LN6047554-1"            0.00011,      0.0     -0.00344947
"Line.LN5956458-1"            0.00015,      0.0     -0.00966352
"Line.LN5752776-2"            0.06179,     0.01     0.0219143
"Line.LN5651988-1"            0.00021,      0.0     -0.00592471
"Line.LN5562935-1"            0.00038,      0.0     -0.0121438
"Line.LN5502521-1"            0.00143,     0.01     -0.00606919
"Line.LN6409797-3"            0.05322,     0.04     0.0187377
"Line.LN5926332-1"            0.00040,      0.0     -0.00804256
"Line.LN5742811-4"            0.03211,     0.00     0.0274998
"Line.LN6505943-3"            0.00010,      0.0     -0.00017466
"Line.LN6228278-1"            0.00462,     0.00     0.00148507
"Line.LN5896844-1"            0.00002,      0.0     -0.00331233
"Line.LN5805761-1"            5.86039,     0.06     13.8242
"Line.LN5867683-2"            0.96529,     0.13     0.377182
"Line.LN5956467-1"            0.09309,     0.06     0.0351695
"Line.LN5683804-1"            0.00698,     0.01     -0.00759342
"Line.LN6505940-2"            0.04138,     0.03     0.0145778
"Line.LN6139649-1"            0.00041,      0.0     -0.0030626
"Line.LN5982822-1"            0.00018,      0.0     -0.00492105
"Line.LN81354564-11"          0.00820,     0.01     -0.0300911
"Line.LN5807087-1"            0.00027,      0.0     -0.00066067
"Line.LN5517002-3"            0.05369,     0.02     0.0282646
"Line.A8735_48332_SW"         0.82903,     0.01     0.828811
"Line.LN5710794-3"            2.53667,     0.02     5.97338
"Line.LN6388581-1"            0.00042,      0.0     -0.00384748
"Line.LN5499793-1"            0.00033,      0.0     -0.0163943
"Line.LN5653472-1"            0.00165,     0.00     -0.00444891
"Line.LN6288693-1"            0.00008,      0.0     -0.000837929
"Line.LN6199518-1"            0.13398,     0.03     0.00126157
"Line.LN5738651-1"            0.00029,      0.0     -0.010986
"Line.LN5804836-1"            0.25864,     0.05     0.069756
"Line.LN5926320-1"            0.00009,      0.0     -0.0138465
"Line.LN6121686-1"            0.00034,      0.0     -0.011834
"Line.LN5532790-1"            0.00243,     0.01     -0.00876715
"Line.LN6258470-1"            0.00004,      0.0     -0.0105719
"Line.LN6411407-1"            0.01673,     0.01     -0.0265719
"Line.LN5636753-1"            0.00251,     0.01     -0.00293573
"Line.LN6321412-1"            0.00025,      0.0     -0.00129673
"Line.LN5833652-1"            0.02907,     0.03     0.00694119
"Line.LN5803262-1"            0.00008,      0.0     -0.00299456
"Line.LN6438273-3"            0.00866,     0.01     -0.0326704
"Line.LN6229827-1"            0.00011,      0.0     -0.00153462
"Line.LN5651995-1"            0.00055,      0.0     -0.00840394
"Line.LN5804793-1"            0.01857,     0.02     0.003113
"Line.LN5894220-2"            0.00037,      0.0     -0.00585513
"Line.LN6413711-1"            0.00015,      0.0     -0.00677343
"Line.LN5837361-8"            0.00000,      0.0     -0.00074315
"Line.LN6506316-3"            0.00336,     0.02     -0.0572981
"Line.LN5652982-1"            0.00456,     0.02     -0.0192824
"Line.LN5624288-1"            2.31170,     0.03     5.51117
"Line.LN6048641-1"            0.00111,     0.00     -0.00481782
"Line.LN5686078-3"            0.00010,      0.0     -0.00157406
"Line.LN8939784-1"            0.00078,      0.0     -0.0209703
"Line.LN5989326-1"            0.00000,      0.0     -0.000786751
"Line.LN5898057-1"            0.00006,      0.0     -0.00105816
"Line.L5437_48332_SW"         0.28373,     0.00     0.283538
"Line.LN5535139-1"            0.15299,     0.00     0.363504
"Line.LN5653463-1"            0.00007,      0.0     -0.011653
"Line.LN6137084-3"            0.00000,      0.0     -0.00272607
"Line.LN5472343-1"            0.00771,     0.01     -0.00162664
"Line.LN5712477-2"            0.00245,     0.00     0.000520702
"Line.LN5501004-1"            0.03367,     0.02     -0.0188104
"Line.LN5744357-1"            0.00573,     0.01     -0.0123944
"Line.LN6350544-3"            0.71485,     0.04     0.649721
"Line.LN6900590-2"            0.00118,     0.00     0.000353577
"Line.LN6201696-2"            0.00013,      0.0     -0.00206254
"Line.LN5926324-1"            0.04748,     0.03     0.0174169
"Line.LN5532749-2"            0.00002,      0.0     -0.000719406
"Line.LN8940663-1"            0.00070,      0.0     -0.172631
"Line.LN5773980-1"            0.00004,      0.0     -0.00796009
"Line.LN6350545-1"            0.00010,      0.0     -0.0115927
"Line.LN5653454-1"            0.00010,      0.0     -0.0131204
"Line.LN5623401-1"            0.00046,      0.0     -0.00508961
"Line.LN5863718-1"            0.00000,      0.0     -0.000868004
"Line.LN5712584-2"            0.00516,     0.01     -0.000730799
"Line.LN5924702-1"            0.00001,      0.0     -0.00874551
"Line.LN6047596-1"            0.00294,     0.01     -0.00666034
"Line.LN5744370-3"            0.00008,      0.0     -0.00465166
"Line.LN5861005-3"            0.85614,     0.01     2.03228
"Line.LN5776665-1"            0.00738,     0.00     0.00354436
"Line.LN5928546-1"            0.00007,      0.0     -0.000714419
"Line.LN6229797-1"            0.00034,      0.0     -0.00801655
"Line.LN5714915-1"            0.00014,      0.0     -0.00813447
"Line.LN6411385-1"            0.00023,      0.0     -0.0135674
"Line.LN5623406-1"            0.00117,     0.00     -0.0107387
"Line.LN5683822-1"            0.00022,      0.0     -0.0079069
"Line.LN6327237-2"            0.00247,     0.01     -0.00456019
"Line.LN6077785-1"            0.00016,      0.0     -0.0109998
"Line.LN5803262-8"            0.00002,      0.0     -0.00569368
"Line.LN5714080-1"            0.32609,     0.04     0.0869289
"Line.LN5526906-2"            0.00936,     0.00     0.00790035
"Line.LN6108145-1"            0.00935,     0.01     -0.0302082
"Line.LN5591710-3"            1.75201,     0.03     4.16139
"Line.LN6078776-1"            0.00000,      0.0     -0.0688062
"Line.LN5576174-4"            1.95834,     0.03     4.65302
"Line.LN5926301-1"            0.03235,     0.01     0.00464372
"Line.LN6078768-1"            0.32432,     0.01     0.723397
"Line.LN6047578-1"            0.47154,     0.06     0.150249
"Line.LN8961800-3"            0.00007,      0.0     -0.00446467
"Line.LN5562927-1"            0.11275,     0.05     0.0537174
"Line.LN81048107-1"           0.01531,     0.02     -0.0314471
"Line.LN6320368-1"            0.24221,     0.05     0.0671106
"Line.LN5803293-1"            0.00872,     0.02     -0.0109459
"Line.LN6138604-1"            0.22464,     0.04     0.0545821
"Line.LN8961799-1"            0.00076,      0.0     -0.0167334
"Line.LN5957460-1"            0.00056,      0.0     -0.00747768
"Line.LN6169261-1"            0.63023,     0.05     0.535546
"Line.LN5836089-1"            0.03645,     0.05     0.000741057
"Line.LN5773028-1"            0.00085,      0.0     -0.00573593
"Line.LN6138612-1"            0.00090,     0.01     -0.0510629
"Line.LN6017304-1"            0.00000,      0.0     -0.00021032
"Line.LN6440004-2"            0.00002,      0.0     -0.00100955
"Line.LN5866308-1"            4.76342,     0.04     11.2482
"Line.LN5562919-1"            0.05707,     0.04     0.0213623
"Line.LN6061814-1"            0.00013,      0.0     -0.00841488
"Line.LN6291152-1"            0.00674,     0.01     -0.00398902
"Line.LN5621864-1"            0.00048,      0.0     -0.00259013
"Line.LN5712475-1"            0.00002,      0.0     -0.000538747
"Line.LN5500984-1"            0.00260,     0.00     0.000641813
"Line.LN5472367-1"            0.00026,      0.0     -0.00942506
"Line.LN5926309-3"            0.00325,     0.01     -0.0133807
"Line.LN5625547-1"            0.00128,     0.00     -0.000187575
"Line.LN6407748-2"            0.03342,     0.02     0.0201387
"Line.LN6199513-1"            0.00021,      0.0     -0.00539227
"Line.LN6229795-3"            0.00012,      0.0     -0.00117478
"Line.LN5895802-1"            0.00006,      0.0     -0.00333291
"Line.LN5926293-1"            0.00010,      0.0     -0.00981868
"Line.LN5916435-1"            0.00000,      0.0     -0.0108883
"Line.LN6344714-1"            0.00006,      0.0     -0.000237881
"Line.LN6077815-4"            0.50843,     0.09     0.227877
"Line.LN6259993-1"            0.04082,     0.04     0.0101708
"Line.LN5744358-1"            0.00026,      0.0     -0.00917013
"Line.LN5708136-1"            0.00019,      0.0     -0.00017278
"Line.LN6350542-1"            8.55174,     0.17     8.00423
"Line.LN6351517-1"            0.00181,     0.01     -0.0071343
"Line.LN5531255-2"            0.00386,     0.00     0.00115639
"Line.LN6298585-1"            1.28287,     0.15     0.45871
"Line.LN5774474-1"            0.00005,      0.0     -0.0083948
"Line.LN5683827-3"            0.00006,      0.0     -0.00336433
"Line.LN5835129-1"            0.02380,     0.03     -0.000625102
"Line.LN6506308-1"            0.00021,      0.0     -0.00844898
"Line.LN5532751-1"            0.04279,     0.02     0.0203003
"Line.LN6350528-1"            0.00145,     0.01     -0.00754262
"Line.LN5865228-1"            0.00281,     0.01     -0.00754269
"Line.LN5803270-2"            0.00011,      0.0     -0.00153401
"Line.LN5472360-1"            1.96970,     0.11     0.606598
"Line.LN81354564-9"           0.00018,      0.0     -0.00522654
"Line.LN6900591-20"           0.00050,      0.0     -0.00790123
"Line.LN6439975-1"            0.00470,     0.00     0.00181997
"Line.LN6259981-2"            0.00009,      0.0     -0.00956397
"Line.LN6350539-1"            0.01110,     0.02     -0.00570714
"Line.LN5926300-1"            0.00191,     0.01     -0.00779733
"Line.LN6261021-1"           15.65182,     0.14     36.9423
"Line.LN6141147-1"            0.39701,     0.10     0.211737
"Line.LN6411390-1"            0.00018,      0.0     -0.00817831
"Line.LN6351519-1"           13.49403,     0.12     31.8491
"Line.LN8945012-1"            0.00003,      0.0     -0.0025531
"Line.LN5928544-2"            0.01063,     0.01     0.0018648
"Line.LN6379450-3"            0.00000,      0.0     -0.0151691
"Line.LN5503576-1"            0.52968,     0.02     1.1861
"Line.LN6320353-1"            0.00003,      0.0     -0.00510505
"Line.LN6198013-2"            0.11726,     0.04     0.0366994
"Line.LN6138597-1"            0.00909,     0.01     -0.00335607
"Line.LN5835132-1"            0.00018,      0.0     -0.00962437
"Line.LN5739188-1"            0.49604,     0.04     0.443776
"Line.LN5776667-1"            0.00177,     0.00     0.000376488
"Line.LN6326286-2"            0.00006,      0.0     -0.0129814
"Line.LN6229789-1"            0.00025,      0.0     -0.0116457
"Line.LN6170291-1"            0.00489,     0.01     -0.00566892
"Line.LN6350538-1"            0.23223,     0.05     0.0304652
"Line.LN5714052-2"            0.00009,      0.0     -0.0021404
"Line.LN5956487-1"            0.21207,     0.03     0.163015
"Line.LN5472384-2"            0.00001,      0.0     -0.00281063
"Line.LN6047575-2"            0.00002,      0.0     -0.000816154
"Line.LN5744343-3"            0.00003,      0.0     -0.00171691
"Line.LN6049824-1"            0.00004,      0.0     -0.00111077
"Line.LN6320329-1"            1.21042,     0.10     0.417944
"Line.LN5955074-3"            0.00171,     0.00     -0.000251661
"Line.LN5863823-1"            0.91815,     0.07     0.301307
"Line.LN5562931-3"            0.00004,      0.0     -0.000980547
"Line.LN6380835-1"            0.00002,      0.0     -0.00629656
"Line.LN6991380-4"            0.00027,      0.0     -0.008503
"Line.LN6320325-1"            0.00075,      0.0     -0.0113956
"Line.LN5501000-1"            0.00010,      0.0     -0.00702388
"Line.LN6320364-1"            0.00007,      0.0     -0.0118974
"Line.LN5865232-1"            0.12663,     0.08     0.0540089
"Line.LN6292465-2"            0.04224,     0.02     0.0201422
"Line.LN8979251-1"            0.00007,      0.0     -0.0146309
"Line.LN6351512-1"            0.00001,      0.0     -0.00113164
"Line.LN5644788-1"            0.00003,      0.0     -0.00888428
"Line.LN6207101-1"            0.00030,      0.0     -0.00834294
"Line.LN5831676-1"            0.00013,      0.0     -0.00732554
"Line.LN5502533-1"            5.48396,     0.28     1.70865
"Line.LN6256144-3"            3.92891,     0.19     1.22869
"Line.LN5744359-1"            0.00119,     0.01     -0.0190931
"Line.LN5804785-1"            0.00372,     0.01     -0.0302214
"Line.LN8979346-4"            0.00006,      0.0     -0.00206718
"Line.LN81048100-3"           0.02876,     0.02     -0.0272917
"Line.LN5986938-2"            0.00058,      0.0     -0.00112929
"Line.LN81018876-1"           0.00478,     0.00     -0.000993979
"Line.LN5653459-1"            0.00019,      0.0     -0.0119829
"Line.LN6290239-1"            0.00022,      0.0     -0.0119953
"Line.LN5593222-1"            2.17526,     0.18     0.742998
"Line.LN5561432-2"            0.08479,     0.09     0.0174544
"Line.LN5896825-1"            0.48469,     0.02     1.08955
"Line.LN6413565-1"            0.00572,     0.00     0.00171446
"Line.LN5712587-2"            0.08584,     0.05     0.0364001
"Line.LN6326286-1"            0.00026,      0.0     -0.014288
"Line.LN5472406-1"            0.00006,      0.0     -0.00834001
"Line.LN8945010-1"            0.00013,      0.0     -0.00361732
"Line.LN5865245-1"            0.00089,      0.0     -0.0184573
"Line.LN5501089-1"            0.00005,      0.0     -0.012953
"Line.LN5712587-3"            0.02899,     0.02     0.0122881
"Line.LN5503544-1"            1.12212,     0.02     2.66601
"Line.LN5534969-3"            0.49280,     0.01     1.17056
"Line.LN8979248-1"            0.00004,      0.0     -0.00864563
"Line.LN5594151-1"            0.00006,      0.0     -0.00367656
"Line.LN5836178-1"            4.03074,     0.05     9.57369
"Line.LN6140777-1"            0.00566,     0.00     0.00195903
"Line.LN6108135-1"            0.00010,      0.0     -0.01106
"Line.LN6381764-1"            0.01248,     0.02     -0.000837001
"Line.LN6348948-1"           10.28162,     0.14     24.4377
"Line.LN5502525-1"            0.00012,      0.0     -0.00887388
"Line.LN5651977-3"            0.00059,      0.0     -0.00242077
"Line.LN8961800-2"            0.00458,     0.01     -0.0761162
"Line.LN5956502-1"            0.00000,      0.0     -0.00451094
"Line.LN5958706-1"            0.00026,      0.0     -0.00370642
"Line.LN5623399-1"            0.00025,      0.0     -0.00888635
"Line.LN5623396-1"            0.02159,     0.03     0.000194284
"Line.LN5532734-1"            0.01032,     0.02     -0.00373082
"Line.LN5651961-1"            0.00023,      0.0     -0.0105325
"Line.LN6137015-1"            0.02072,     0.02     0.00512205
"Line.LN6019478-1"            0.00049,      0.0     -0.0127491
"Line.LN6376200-2"            0.01072,     0.02     -0.00691568
"Line.LN5926294-1"            0.00025,      0.0     -0.00874211
"Line.LN6108130-5"            0.00035,      0.0     -0.00852995
"Line.LN6077782-1"            0.79650,     0.11     0.244502
"Line.LN6286966-2"            0.00005,      0.0     -0.00535837
"Line.LN8979346-3"            0.00026,      0.0     -0.0391765
"Line.LN5562947-1"            0.01763,     0.02     0.00271565
"Line.LN81048107-2"           0.00696,     0.01     -0.0350757
"Line.LN5655838-1"            0.05475,     0.02     -0.0234864
"Line.LN6017297-1"            0.00473,     0.01     -0.00217581
"Line.LN5956456-1"            0.08719,     0.09     0.0175375
"Line.LN6108148-1"            0.00003,      0.0     -0.00946678
"Line.LN81048100-7"           0.00457,     0.00     -0.000579569
"Line.LN5928545-1"            0.00002,      0.0     -0.00035208
"Line.LN5624291-1"            0.09514,     0.04     0.0634714
"Line.LN6134417-2"            0.00004,      0.0     -0.00118747
"Line.LN5504713-3"            0.00161,     0.00     -0.00518428
"Line.LN5895784-1"            0.00258,     0.01     -0.00537192
"Line.LN5683858-2"            0.00141,     0.00     -0.0157637
"Line.LN5986937-1"            0.00091,     0.00     -0.00341063
"Line.LN6041764-1"            0.00001,      0.0     -0.00504098
"Line.LN6228396-1"            0.04867,     0.04     0.0152058
"Line.LN5896727-1"            0.00026,      0.0     -0.00431533
...
"Line.LN4625713_SW"           0.00998,     0.00     0.00977184
"Line.LN5502543-2"            0.47945,     0.04     0.402863
"Line.LN5683824-1"            0.06488,     0.04     0.0273479
"Line.LN6259999-2"            0.00024,      0.0     -0.00364126
"Line.LN6349052-1"            0.00123,     0.01     -0.044662
"Line.LN5926295-1"            0.00715,     0.02     -0.015342
"Line.LN6381766-1"            0.02210,     0.02     0.00776147
"Line.LN5561439-2"            0.00907,     0.00     0.0156541
"Line.LN5502527-1"            0.00010,      0.0     -0.0153129
"Line.LN6290217-1"            0.01605,     0.01     -0.0483435
"Line.LN5593246-1"            0.00716,     0.01     -0.00210607
"Line.LN5956465-1"            0.00491,     0.02     -0.0316559
"Line.LN5835134-1"            0.00018,      0.0     -0.0278216
"Line.LN5679695-1"            2.21723,     0.04     5.25913
"Line.LN6341781-2"            0.00002,      0.0     -0.00142708
"Line.LN6018336-1"            4.70411,     0.04     11.1062
"Line.LN5532749-3"            0.00014,      0.0     -0.0061931
"Line.LN5686244-1"            0.00017,      0.0     -0.000368022
"Line.LN6879074-1"            0.00002,      0.0     -0.00328039
"Line.LN6106511-1"            3.85096,     0.18     1.20241
"Line.LN5679770-2"            0.00004,      0.0     -0.0047116
"Line.LN5993742-1"            0.00008,      0.0     -0.0114584
"Line.LN6259997-1"            0.00055,      0.0     -0.00696695
"Line.LN5682337-1"            0.00000,      0.0     -0.00106605
"Line.LN5653456-1"            0.00075,      0.0     -0.00160589
"Line.LN6196270-4"            0.00016,      0.0     -0.00400549
"Line.LN6290233-1"            0.03047,     0.01     -0.0154632
"Line.LN6991377-13"           0.02495,     0.02     0.0120561
"Line.LN6199556-1"            0.00017,      0.0     -0.0119402
"Line.LN5744323-1"            0.00477,     0.01     -0.00541932
"Line.LN5745347-1"            0.32810,     0.01     0.734351
"Line.LN6047561-1"            3.50416,     0.30     1.22687
"Line.LN6411389-1"            0.00496,     0.00     0.00156779
"Line.LN5774453-1"            2.51496,     0.21     0.878706
"Line.LN5926303-1"            0.01163,     0.02     -0.0066505
"Line.LN5770318-1"            0.02808,     0.00     0.00890385
"Line.LN5958702-3"            0.00228,     0.01     -0.0102326
"Line.LN5804806-1"            0.01884,     0.02     0.00485808
"Line.LN5561521-1"            0.00595,     0.02     -0.0164824
"Line.LN6199521-1"            0.00009,      0.0     -0.00944106
"Line.LN6290240-2"            0.00000,      0.0     -0.0416051
"Line.LN81018877-1"           0.00016,      0.0     -0.0179411
"Line.LN5860423-1"            2.36300,     0.05     2.21886
"Line.LN7064338-3"            0.00023,      0.0     -0.00634441
"Line.LN6077801-1"            0.00776,     0.02     -0.0117799
"Line.LN5653489-1"            0.00055,      0.0     -0.0322964
"Line.LN6199515-1"            0.00081,      0.0     -0.00202547
"Line.LN6380819-1"            0.00991,     0.01     -0.0039574
"Line.LN4641075_SW"           0.16695,     0.00     0.166733
"Line.LN5860423-3"            0.69864,     0.01     0.653818
"Line.LN5622467-4"            0.06335,     0.02     -0.0414267
"Line.LN81043320-3"           0.03144,     0.03     -0.0790163
"Line.LN6290213-1"            0.00071,      0.0     -0.00737496
"Line.LN6140774-2"            0.00044,      0.0     -0.00801802
"Line.LN5500984-4"            0.00153,     0.00     0.000453588
"Line.LN6412366-1"            0.00047,      0.0     -0.00844395
"Line.LN6383058-1"            0.00002,      0.0     -0.000686858
"Line.LN5649361-2"            0.00012,      0.0     -0.00733173
"Line.LN5562930-1"            0.00009,      0.0     -0.0121245
"Line.LN5863825-1"            0.00043,      0.0     -0.0158471
"Line.LN6290212-1"            3.71179,     0.20     1.15527
"Line.LN5714046-1"            0.00028,      0.0     -0.0152836
"Line.LN5682448-2"            0.00001,      0.0     -0.00159283
"Line.LN6229832-2"            0.00006,      0.0     -0.00920369
"Line.LN5843536-1"            0.06902,     0.01     0.024478
"Line.LN5715018-1"            0.00013,      0.0     -0.00500344
"Line.L5491_48332_SW"         0.00003,      0.0     -4.35965E-005
"Line.LN5655682-1"            0.00019,      0.0     -0.000477365
"Line.LN4625696_SW"           0.00440,     0.00     0.00419786
"Line.LN5926308-3"            0.23620,     0.03     0.0650441
"Line.LN6290206-1"            0.00017,      0.0     -0.00899505
"Line.LN5562929-1"            0.00016,      0.0     -0.00571764
"Line.LN5803293-2"            0.00295,     0.01     -0.00546288
"Line.LN5745355-1"            3.92868,     0.04     9.27522
"Line.LN6017285-1"            0.00181,     0.01     -0.0240781
"Line.LN6201698-2"            0.00001,      0.0     -0.000606351
"Line.LN5501003-1"            0.00036,      0.0     -0.00883866
"Line.LN5924720-1"            0.00002,      0.0     -0.00386247
"Line.LN6255845-1"            0.00046,      0.0     -0.000693938
"Line.LN5956501-1"            0.00013,      0.0     -0.00729662
"Line.LN6077772-1"            0.00244,     0.01     -0.00767645
"Line.LN6225673-1"            0.00009,      0.0     -0.00123689
"Line.LN5561432-1"            0.01981,     0.02     0.00453007
"Line.LN4586093_SW"           0.02472,     0.00     0.0245307
"Line.LN6138608-3"            3.26324,     0.17     1.0166
"Line.LN6138618-1"            0.00039,      0.0     -0.0144578
"Line.LN5562921-1"            0.13306,     0.07     0.061017
"Line.LN5895807-1"            0.00003,      0.0     -0.015339
"Line.LN5502540-1"            0.09355,     0.04     0.0456121
"Line.LN6411375-1"            0.00020,      0.0     -0.0070057
"Line.LN6047573-2"            0.06254,     0.05     0.0219545
"Line.LN5741249-1"            0.00059,      0.0     -0.000169766
"Line.LN5698090-3"            0.00002,      0.0     -0.000488812
"Line.LN5989332-1"            0.00190,     0.01     -0.00605777
"Line.LN5927423-1"            0.01762,     0.02     -0.0740749
"Line.LN5895803-1"            0.00309,     0.01     -0.0100414
"Line.LN6260001-1"            0.00005,      0.0     -0.0157662
"Line.LN6229791-1"            0.00072,      0.0     -0.00617227
"Line.LN6409775-2"            0.00530,     0.01     -0.00358084
"Line.LN5714042-1"            0.00018,      0.0     -0.00961524
"Line.LN6411005-1"            0.12292,     0.03     0.0288515
"Line.LN5532788-2"            0.00001,      0.0     -0.00145164
"Line.LN5744325-1"            0.00021,      0.0     -0.00789873
"Line.LN6320332-1"            0.23684,     0.14     0.102371
"Line.LN6991378-5"            0.00030,      0.0     -0.00930557
"Line.LN5863704-3"            0.90194,     0.03     0.84659
"Line.LN6318745-3"            0.01656,     0.01     0.00617796
"Line.LN6413700-1"            3.74987,     0.05     8.93812
"Line.LN6409778-1"            0.10000,     0.04     -0.0481496
"Line.LN6381854-1"            0.00124,     0.01     -0.0150009
"Line.LN6138608-2"            0.17542,     0.01     0.0546526
"Line.LN5744370-2"            0.00011,      0.0     -0.00591933
"Line.LN6290240-3"            0.00000,      0.0     -0.0266293
"Line.LN8979358-1"            0.00247,     0.01     -0.0297267
"Line.LN5927383-1"            0.00132,     0.00     -0.0488461
"Line.L5659_48332_SW"         0.00085,      0.0     0.00078147
"Line.LN6231996-1"            0.03509,     0.02     0.0164852
"Line.LN5533797-1"            0.00030,      0.0     -0.0494755
"Line.LN6047582-1"            0.00012,      0.0     -0.012659
"Line.LN6409775-4"            0.00813,     0.01     -0.00380255
"Line.LN5926290-1"            0.00095,     0.01     -0.0229998
"Line.LN6381820-1"            7.24600,     0.10     17.2535
"Line.LN6103662-1"            0.00327,     0.01     -0.00896404
"Line.LN6262430-1"            0.00005,      0.0     -0.000647136
"Line.LN5742813-1"            0.00046,      0.0     -0.00741723
"Line.LN6199527-1"            0.61282,     0.07     0.173685
"Line.LN5986925-2"            0.00052,      0.0     -0.0068802
"Line.LN5742811-1"            0.28651,     0.02     0.246201
"Line.LN5926284-3"            0.00346,     0.01     -0.003762
"Line.LN6413954-1"            3.65206,     0.05     8.66914
"Line.LN6411366-1"            0.03243,     0.05     -0.0181382
"Line.LN6412354-1"            1.06358,     0.01     2.51102
"Line.LN5895789-2"            0.51255,     0.08     0.152657
"Line.LN6383060-2"            0.01640,     0.01     0.00798063
"Line.LN6259984-1"            3.71075,     0.06     8.80107
"Line.LN5591814-1"            0.34516,     0.09     0.180733
"Line.LN5502531-1"            1.48236,     0.08     0.461323
"Line.LN5863746-1"            0.00000,      0.0     -0.00108846
"Line.LN5956499-3"            0.13504,     0.02     0.108645
"Line.LN5769126-1"            1.74978,     0.03     4.15501
"Line.LN3693186_SW"           0.37729,     0.01     0.377089
"Line.LN5861005-2"            0.37214,     0.00     0.883371
"Line.LN5714043-1"            0.00014,      0.0     -0.00183434
"Line.LN5835138-1"            0.00010,      0.0     -0.0108133
"Line.LN6411383-1"            0.88470,     0.06     0.805857
"Line.LN81048100-2"           0.04707,     0.03     -0.0197656
"Line.LN6019479-1"            0.00403,     0.00     0.00129471
"Line.LN5714044-1"            0.00001,      0.0     -0.00206382
"Line.LN6260000-1"            0.08482,     0.04     0.0406007
"Line.LN5985347-1"            0.00293,     0.01     -0.0107757
"Line.LN6348967-1"            0.00000,      0.0     -0.00345972
"Line.LN5833611-1"            0.00542,     0.02     -0.0169661
"Line.LN5593251-1"            0.29056,     0.03     0.242335
"Line.LN5837358-1"            0.00030,      0.0     -0.000413942
"Line.LN5894218-1"            0.00707,     0.02     -0.0142712
"Line.LN6195132-1"            0.00038,      0.0     -0.00103559
"Line.LN6229829-2"            0.05459,     0.01     0.0464608
"Line.LN6380825-1"            0.02151,     0.02     0.00185949
"Line.LN5624375-1"            0.00014,      0.0     -0.0155367
"Line.LN5533710-1"            0.00005,      0.0     -0.0028291
"Line.LN6196270-2"            0.00030,      0.0     -0.0203614
"Line.LN5653464-1"            0.00007,      0.0     -0.00215434
"Line.LN5986919-1"            0.00343,     0.01     -0.00538204
"Line.LN5807086-1"            0.00003,      0.0     -0.008137
"Line.LN5805676-2"            0.00001,      0.0     -0.000778531
"Line.LN6108170-1"            0.00811,     0.00     0.00372573
"Line.LN6292466-1"            0.00002,      0.0     -0.00117115
"Line.LN5472394-1"            0.00042,      0.0     -0.000174385
"Line.LN6017328-1"            0.00381,     0.01     -0.0150861
"Line.LN5957493-1"            0.73492,     0.03     1.64403
"Line.LN5623403-1"            3.99767,     0.19     1.25088
"Line.LN6320333-1"            0.09213,     0.05     0.0431113
"Line.LN5865241-1"            0.07155,     0.03     0.0342697
"Line.LN6259998-3"            0.00005,      0.0     -0.00206091
"Line.LN6046058-1"            0.00106,     0.00     -0.00704906
"Line.LN6229788-1"            0.00002,      0.0     -0.000434805
"Line.LN6896673-7"            0.00003,      0.0     -0.00341875
"Line.LN6169257-1"            1.42407,     0.09     1.29738
"Line.LN5682375-1"            0.00527,     0.01     -0.00511857
"Line.LN6106584-1"            0.00201,     0.01     -0.00847609
"Line.LN5472403-3"            0.06767,     0.03     -0.0284426
"Line.LN6137009-2"            0.75390,     0.01     1.79317
"Line.LN5502536-2"            0.00023,      0.0     -0.00116735
"Line.LN5926304-1"            0.01473,     0.02     -0.00583718
"Line.LN5806921-1"            0.00009,      0.0     -0.000931141
"Line.LN6108146-1"            0.00037,      0.0     -0.00463918
"Line.LN5803267-1"            0.00115,     0.01     -0.018153
"Line.LN5486729-1"            0.00000,      0.0     -0.000364621
"Line.LN5835142-1"            0.01034,     0.01     -0.00038832
"Line.LN5683842-1"            0.00006,      0.0     -0.000325306
"Line.LN6047598-1"            0.00004,      0.0     -0.00845807
"Line.V7313_48332_SW"         0.00003,      0.0     -4.30978E-005
"Line.LN5806920-1"            0.00013,      0.0     -0.00049411
"Line.LN5987955-2"            0.00086,      0.0     -0.00685572
"Line.LN5744371-1"            0.00032,      0.0     -0.00636264
"Line.LN6352702-1"            0.00060,      0.0     -0.000855717
"Line.LN5835151-1"            0.00146,     0.01     -0.0135033
"Line.LN5894212-2"            0.00083,      0.0     -0.0649422
"Line.LN5774458-1"            0.19129,     0.03     0.0335961
"Line.LN5895771-2"            0.00002,      0.0     -0.0033689
"Line.LN5837355-1"            0.06456,     0.03     0.0307927
"Line.LN6015811-1"            0.00039,      0.0     -0.0110417
"Line.LN81048106-1"           0.00975,     0.01     -0.0144014
"Line.LN5804835-1"            0.00124,     0.00     -0.00948021
"Line.LN5805676-3"            0.00011,      0.0     -0.00599967
"Line.LN6043468-3"            0.00034,      0.0     -0.00328299
"Line.LN6047566-1"            0.09381,     0.02     0.000580043
"Line.LN6381855-1"            0.00009,      0.0     -0.0101152
"Line.LN5943422-3"            0.00200,     0.00     -0.00187521
"Line.LN81048088-1"           0.00223,     0.00     -0.0020548
"Line.LN5683827-2"            0.00002,      0.0     -0.00114348
"Line.LN5532782-1"            0.02514,     0.02     0.0107408
"Line.LN6106580-1"            0.00548,     0.01     -0.00837846
"Line.LN5562946-1"            0.00034,      0.0     -0.00471541
"Line.LN5920279-2"            0.59151,     0.01     1.40514
"Line.LN5621886-1"            0.14201,     0.09     -0.0794241
"Line.LN6290209-1"            1.14037,     0.22     0.155232
"Line.LN5863714-2"            0.26323,     0.00     0.62525
"Line.LN6106583-4"            0.00069,      0.0     -0.00054288
"Line.LN6015794-1"            0.00016,      0.0     -0.00793478
"Line.LN81048103-2"           0.02669,     0.03     -0.0548688
"Line.LN6078689-1"            0.00022,      0.0     -0.00320171
"Line.LN5683805-1"            0.00037,      0.0     -0.0200734
"Line.LN6199558-1"            0.23903,     0.10     0.116657
"Line.LN6286109-1"            0.74175,     0.01     1.76474
"Line.LN6350556-3"            3.52868,     0.07     3.34127
"Line.LN5625548-1"            0.00016,      0.0     -0.00103802
"Line.LN6199546-1"            0.00024,      0.0     -0.00327662
...